Circuit: * C:\Users\Computer\Downloads\RFgen sims\ESB_PA107_sim.asc

Direct Newton iteration failed to find .op point.  (Use ".option noopiter" to skip.)
Starting Gmin stepping
Increasing initial diagonal Gmin to 100
Gmin = 100
vernier = 0.5
vernier = 0.25
Gmin = 26.2144
vernier = 0.125
vernier = 0.0625
vernier = 0.03125
vernier = 0.015625
Gmin = 24.2928
vernier = 0.0078125
vernier = 0.00390625
vernier = 0.00195312
vernier = 0.000976562
Gmin = 24.2336
vernier = 0.000488281
Gmin = 0
Gmin stepping succeeded in finding the operating point.


Date: Fri May 29 14:44:34 2026
Total elapsed time: 0.551 seconds.

tnom = 27
temp = 27
method = trap
totiter = 24381
traniter = 22734
tranpoints = 10262
accept = 10096
rejected = 166
matrix size = 122
fillins = 169
solver = Normal
Avg thread counts: 3.0/3.1/1.2/1.1
Matrix Compiler1: 15.99 KB object code size  3.5/2.1/[1.9]
Matrix Compiler2: 13.31 KB object code size  1.0/1.8/[0.5]

