Circuit: * Coilcraft KA4823-CL - AC Sweep test

.OP point found by inspection.

Date: Wed Apr 29 17:48:09 2026
Total elapsed time: 0.044 seconds.

tnom = 27
temp = 27
method = trap
totiter = 0
traniter = 0
tranpoints = 0
accept = 0
rejected = 0
matrix size = 9
fillins = 3
solver = Normal
Avg thread counts: 8.0/0.0/0.0/2.1
Matrix Compiler1:      28 opcodes
Matrix Compiler2:      54 opcodes
